
**** 02/10/26 12:54:34 ********* PSpice 9.2 (Mar 2000) ******** ID# 0 ********

 ** Profile: "SCHEMATIC1-rlc"  [ D:\krishnendu147\rlc-SCHEMATIC1-rlc.sim ] 


 ****     CIRCUIT DESCRIPTION


******************************************************************************




** Creating circuit file "rlc-SCHEMATIC1-rlc.sim.cir" 
** WARNING: THIS AUTOMATICALLY GENERATED FILE MAY BE OVERWRITTEN BY SUBSEQUENT SIMULATIONS

*Libraries: 
* Local Libraries :
* From [PSPICE NETLIST] section of C:\Program Files\Orcad\PSpice\PSpice.ini file:
.lib "nom.lib" 

*Analysis directives: 
.TRAN  0 10ms 0 1u 
.PROBE V(*) I(*) W(*) D(*) NOISE(*) 
.INC ".\rlc-SCHEMATIC1.net" 



**** INCLUDING rlc-SCHEMATIC1.net ****
* source RLC
V_V1         N00103 0  
+SIN 0 5 1600 0 0 0
R_R1         N00103 N00141  100  
L_L1         N00141 N00168  10mH  
C_C1         0 N00168  1u  

**** RESUMING rlc-SCHEMATIC1-rlc.sim.cir ****
.END

**** 02/10/26 12:54:34 ********* PSpice 9.2 (Mar 2000) ******** ID# 0 ********

 ** Profile: "SCHEMATIC1-rlc"  [ D:\krishnendu147\rlc-SCHEMATIC1-rlc.sim ] 


 ****     INITIAL TRANSIENT SOLUTION       TEMPERATURE =   27.000 DEG C


******************************************************************************



 NODE   VOLTAGE     NODE   VOLTAGE     NODE   VOLTAGE     NODE   VOLTAGE


(N00103)    0.0000 (N00141)    0.0000 (N00168)    0.0000 




    VOLTAGE SOURCE CURRENTS
    NAME         CURRENT

    V_V1         0.000E+00

    TOTAL POWER DISSIPATION   0.00E+00  WATTS



          JOB CONCLUDED

          TOTAL JOB TIME             .24
