
**** 02/10/26 13:06:54 ********* PSpice 9.2 (Mar 2000) ******** ID# 0 ********

 ** Profile: "SCHEMATIC1-sim2"  [ D:\krishnendu147\rlc-SCHEMATIC1-sim2.sim ] 


 ****     CIRCUIT DESCRIPTION


******************************************************************************




** Creating circuit file "rlc-SCHEMATIC1-sim2.sim.cir" 
** WARNING: THIS AUTOMATICALLY GENERATED FILE MAY BE OVERWRITTEN BY SUBSEQUENT SIMULATIONS

*Libraries: 
* Local Libraries :
* From [PSPICE NETLIST] section of C:\Program Files\Orcad\PSpice\PSpice.ini file:
.lib "nom.lib" 

*Analysis directives: 
.TRAN  0 10ms 0 0.5u 
.PROBE V(*) I(*) W(*) D(*) NOISE(*) 
.INC ".\rlc-SCHEMATIC1.net" 



**** INCLUDING rlc-SCHEMATIC1.net ****
* source RLC
V_V2         N00103 0  
+PULSE 0 10 0 1n 1n 0.5m 1m
R_R1         N00103 N00141  2503  
L_L1         N00141 N00168  1.455  
C_C1         0 N00168  9.29n  

**** RESUMING rlc-SCHEMATIC1-sim2.sim.cir ****
.END

**** 02/10/26 13:06:54 ********* PSpice 9.2 (Mar 2000) ******** ID# 0 ********

 ** Profile: "SCHEMATIC1-sim2"  [ D:\krishnendu147\rlc-SCHEMATIC1-sim2.sim ] 


 ****     INITIAL TRANSIENT SOLUTION       TEMPERATURE =   27.000 DEG C


******************************************************************************



 NODE   VOLTAGE     NODE   VOLTAGE     NODE   VOLTAGE     NODE   VOLTAGE


(N00103)    0.0000 (N00141)    0.0000 (N00168)    0.0000 




    VOLTAGE SOURCE CURRENTS
    NAME         CURRENT

    V_V2         0.000E+00

    TOTAL POWER DISSIPATION   0.00E+00  WATTS



          JOB CONCLUDED

          TOTAL JOB TIME             .44
